@<TRIPOS>MOLECULE
caffeine
   24    25     1     0     0
SMALL
NO_CHARGES


@<TRIPOS>ATOM
      1 N1          1.2030    1.0930    0.0000 N.pl3   1 CAF1       0.0000
      2 C2          0.0000    1.7700    0.0000 C.2     1 CAF1       0.0000
      3 N3         -1.1830    1.0890    0.0000 N.pl3   1 CAF1       0.0000
      4 C4         -1.1740   -0.3140    0.0000 C.2     1 CAF1       0.0000
      5 C5          0.0000   -1.0240    0.0000 C.2     1 CAF1       0.0000
      6 C6          1.2110   -0.3340    0.0000 C.2     1 CAF1       0.0000
      7 O7          2.2890   -0.9340    0.0000 O.2     1 CAF1       0.0000
      8 O8          0.0000    3.0260    0.0000 O.2     1 CAF1       0.0000
      9 N9         -2.4730   -0.8050    0.0000 N.pl3   1 CAF1       0.0000
     10 C10        -3.2200    0.3550    0.0000 C.2     1 CAF1       0.0000
     11 N11        -2.4060    1.4750    0.0000 N.2     1 CAF1       0.0000
     12 C12         2.4720    1.8730    0.0000 C.3     1 CAF1       0.0000
     13 C13         2.4470   -1.0420    0.0000 C.3     1 CAF1       0.0000
     14 C14        -2.9210   -2.1830    0.0000 C.3     1 CAF1       0.0000
     15 H1         -4.2900    0.3950    0.0000 H       1 CAF1       0.0000
     16 H2          3.0410    1.6960    0.9050 H       1 CAF1       0.0000
     17 H3          2.2520    2.9320    0.0000 H       1 CAF1       0.0000
     18 H4          3.0410    1.6960   -0.9050 H       1 CAF1       0.0000
     19 H5          3.0220   -0.8550    0.9050 H       1 CAF1       0.0000
     20 H6          2.0470   -2.0480    0.0000 H       1 CAF1       0.0000
     21 H7          3.0220   -0.8550   -0.9050 H       1 CAF1       0.0000
     22 H8         -2.4860   -2.6810   -0.8650 H       1 CAF1       0.0000
     23 H9         -4.0010   -2.2580    0.0000 H       1 CAF1       0.0000
     24 H10        -2.4860   -2.6810    0.8650 H       1 CAF1       0.0000
@<TRIPOS>BOND
     1    1    2 am
     2    1    6 am
     3    1   12 1
     4    2    3 am
     5    2    8 2
     6    3    4 am
     7    3   11 1
     8    4    5 ar
     9    4    9 am
    10    5    6 ar
    11    5   10 1
    12    6    7 2
    13    9   10 am
    14    9   14 1
    15   10   11 2
    16   12   16 1
    17   12   17 1
    18   12   18 1
    19   13   19 1
    20   13   20 1
    21   13   21 1
    22   14   22 1
    23   14   23 1
    24   14   24 1
    25   10   15 1
@<TRIPOS>SUBSTRUCTURE
     1 CAF1        1 GROUP             0 ****  ****    0 ROOT
