methane
  QLProtein

  5  4  0  0  0  0  0  0  0  0999 V2000
    0.0000    0.0000    0.0000 C   0  0  0  0  0  0  0  0  0  0  0  0
    1.0890    0.0000    0.0000 H   0  0  0  0  0  0  0  0  0  0  0  0
   -0.3630    1.0260    0.0000 H   0  0  0  0  0  0  0  0  0  0  0  0
   -0.3630   -0.5130    0.8888 H   0  0  0  0  0  0  0  0  0  0  0  0
   -0.3630   -0.5130   -0.8888 H   0  0  0  0  0  0  0  0  0  0  0  0
  1  2  1  0  0  0  0
  1  3  1  0  0  0  0
  1  4  1  0  0  0  0
  1  5  1  0  0  0  0
M  END
